# generated using pymatgen
data_MgTaRu2
_symmetry_space_group_name_H-M   'P 1'
_cell_length_a   4.42622900
_cell_length_b   6.25873000
_cell_length_c   13.27621000
_cell_angle_alpha   90.00000000
_cell_angle_beta   89.99999500
_cell_angle_gamma   90.00000000
_symmetry_Int_Tables_number   1
_chemical_formula_structural   MgTaRu2
_chemical_formula_sum   'Mg1 Ta1 Ru2'
_cell_volume   367.78516645
_cell_formula_units_Z   1
loop_
 _symmetry_equiv_pos_site_id
 _symmetry_equiv_pos_as_xyz
  1  'x, y, z'
loop_
 _atom_site_type_symbol
 _atom_site_label
 _atom_site_symmetry_multiplicity
 _atom_site_fract_x
 _atom_site_fract_y
 _atom_site_fract_z
 _atom_site_occupancy
  Ru  Ru0  1  0.000000  0.000000  0.000000  1
  Ru  Ru1  1  0.500000  0.500000  0.500000  1
  Mg  Mg2  1  0.250000  0.250000  0.250000  1
  Ta  Ta3  1  0.750000  0.750000  0.750000  1
